* This is the switch
*
*  3     1
*  |     |
*       /
*      /
*    2
*
.SUBCKT switch 1 2 3
	R0 1 2 100m
.ENDS



